
Compatibility modes selected: hs a

Warning: m=xx on .subckt line will override multiplier m hierarchy!


Circuit: ** sch_path: /home/antony/documents/sram130/6t_sram_130.sch

option SCALE: Scale is set to 1e-06 for instance and model parameters
binary raw file "/home/antony/Documents/sram130/simulation/6t_sram_130.raw"
Doing analysis at TEMP = 27.000000 and TNOM = 27.000000

Warning: vdd: no DC value, transient time 0 value used
Warning: vwl: no DC value, transient time 0 value used
Warning: vin: no DC value, transient time 0 value used
No. of Data Columns : 34  

Initial Transient Solution
--------------------------

Node                                   Voltage
----                                   -------
bl                                           0
wl                                         1.8
qb                                         1.8
q                                  1.06552e-07
net1                                       1.8
blb                                        1.8
vdd#branch                        -3.27578e-10
vwl#branch                                   0
vin#branch                         1.59954e-10


No. of Data Rows : 11208

Total analysis time (seconds) = 1.098

Total elapsed time (seconds) = 12.722 

Total DRAM available = 11650.789 MB.
DRAM currently available = 1375.852 MB.
Maximum ngspice program size =  681.551 MB.
Current ngspice program size =  665.699 MB.

Shared ngspice pages =   10.207 MB.
Text (code) pages =    5.316 MB.
Stack = 0 bytes.
Library pages =  663.613 MB.

